Circuit: * E:\Petnica\skup_simulacija\02_Energetska_elektronika\00_Neizolovani_konverteri\floating_buck_boost_LED_driver.asc

Direct Newton iteration for .op point succeeded.

Date: Thu Nov 20 12:20:48 2025
Total elapsed time: 1.901 seconds.

tnom = 27
temp = 27
method = trap
totiter = 883444
traniter = 883424
tranpoints = 243303
accept = 179201
rejected = 64102
matrix size = 19
fillins = 0
solver = Normal
Matrix Compiler1:      50 opcodes  0.1/[0.1]/0.1
Matrix Compiler2: off  [0.1]/0.1/0.1

