Circuit: * C:\users\ostoja\Desktop\Petnica\skup_simulacija\02_Energetska_elektronika\00_Neizolovani_konverteri\self-oscillating_flyback.asc

Per .tran options, skipping operating point for transient analysis.

Date: Thu Nov 20 13:45:43 2025
Total elapsed time: 13.611 seconds.

tnom = 27
temp = 27
method = trap
totiter = 2675298
traniter = 2675298
tranpoints = 1326954
accept = 1324033
rejected = 2921
matrix size = 27
fillins = 19
solver = Normal
Matrix Compiler1: 2.92 KB object code size  0.4/0.2/[0.2]
Matrix Compiler2: off  [0.2]/0.2/0.2

