Circuit: * C:\users\ostoja\Desktop\Elektronika\Art_of_electronics\Figure_3.37.asc

Warning: Multiple definitions of model "lsk389b" Type: JFET
WARNING: Node NC_01 is floating.

WARNING: Less than two connections to node -5V.  This node is used by V4.
WARNING: Less than two connections to node NC_01.  This node is used by C2.
WARNING: Less than two connections to node IN-.  This node is used by V5.
Direct Newton iteration failed to find .op point.  (Use ".option noopiter" to skip.)
Starting Gmin stepping
Gmin = 10
Gmin = 1.07374
Gmin = 0.115292
Gmin = 0.0123794
Gmin = 0.00132923
Gmin = 0.000142725
Gmin = 1.5325e-005
Gmin = 1.6455e-006
Gmin = 1.76685e-007
Gmin = 1.89714e-008
Gmin = 2.03704e-009
Gmin = 2.18725e-010
Gmin = 2.34854e-011
Gmin = 2.52173e-012
Gmin = 2.70769e-013
Gmin = 0
Gmin stepping succeeded in finding the operating point.


Date: Sun Oct 12 18:33:24 2025
Total elapsed time: 0.297 seconds.

tnom = 27
temp = 27
method = trap
totiter = 576
traniter = 0
tranpoints = 0
accept = 0
rejected = 0
matrix size = 150
fillins = 261
solver = Normal
Matrix Compiler1:    1856 opcodes
Matrix Compiler2: 18.79 KB object code size  0.9/1.0/[0.8]

