Circuit: * C:\users\ostoja\Desktop\Elektronika\Art_of_electronics\Figure_3.31.asc

Warning: Multiple definitions of model "lsk389b" Type: JFET
WARNING: Node NC_01 is floating.
WARNING: Node NC_02 is floating.

WARNING: Less than two connections to node 15V.  This node is used by V1.
WARNING: Less than two connections to node -15V.  This node is used by V2.
WARNING: Less than two connections to node -5V.  This node is used by V4.
WARNING: Less than two connections to node NC_01.  This node is used by C2.
WARNING: Less than two connections to node IN-.  This node is used by V5.
WARNING: Less than two connections to node NC_02.  This node is used by C6.
Direct Newton iteration failed to find .op point.  (Use ".option noopiter" to skip.)
Starting Gmin stepping
Gmin = 10
Gmin = 1.07374
Gmin = 0.115292
Gmin = 0.0123794
Gmin = 0.00132923
Gmin = 0.000142725
Gmin = 1.5325e-005
vernier = 0.5
vernier = 0.25
vernier = 0.125
Gmin = 8.20536e-006
vernier = 0.166667
Gmin = 5.73633e-006
vernier = 0.222222
vernier = 0.296296
Gmin = 3.21304e-006
vernier = 0.148148
vernier = 0.197531
Gmin = 2.3727e-006
vernier = 0.263374
vernier = 0.351165
Gmin = 1.24201e-006
vernier = 0.46822
Gmin = 4.56556e-007
vernier = 0.624294
vernier = 0.832392
Gmin = 8.97786e-008
vernier = 1
Gmin = 1.03202e-008
Gmin = 1.10812e-009
Gmin = 1.18984e-010
Gmin = 1.27758e-011
Gmin = 1.37179e-012
Gmin = 1.47295e-013
Gmin = 0
Gmin stepping succeeded in finding the operating point.


Date: Sun Oct 12 18:09:41 2025
Total elapsed time: 0.247 seconds.

tnom = 27
temp = 27
method = trap
totiter = 1101
traniter = 0
tranpoints = 0
accept = 0
rejected = 0
matrix size = 105
fillins = 64
solver = Normal
Matrix Compiler1:     598 opcodes
Matrix Compiler2: 10.09 KB object code size  0.5/0.8/[0.5]

