Circuit: * E:\Petnica\skup_simulacija\02_Energetska_elektronika\half_bridge_converter.asc

WARNING: Less than two connections to node EFFICIENCY.  This node is used by B7.
WARNING: Less than two connections to node LOSSES.  This node is used by B8.
Direct Newton iteration for .op point succeeded.
Heightened Def Con from 0.000485039 to 0.000485039

Date: Thu Nov 20 10:50:59 2025
Total elapsed time: 0.709 seconds.

tnom = 27
temp = 27
method = trap
totiter = 331304
traniter = 331296
tranpoints = 92820
accept = 67808
rejected = 25013
matrix size = 39
fillins = 24
solver = Normal
Matrix Compiler1: 3.14 KB object code size  0.5/0.2/[0.2]
Matrix Compiler2: 3.22 KB object code size  0.2/0.2/[0.2]

