Circuit: * C:\users\ostoja\Desktop\Petnica\skup_simulacija\02_Energetska_elektronika\01_Izolovani_konverteri\push_pull_converter.asc

WARNING: Less than two connections to node EFFICIENCY.  This node is used by B3.
WARNING: Less than two connections to node LOSSES.  This node is used by B4.
Direct Newton iteration for .op point succeeded.
Heightened Def Con from 2.55552e-006 to 2.55852e-006
Heightened Def Con from 9.76527e-006 to 9.76827e-006
Heightened Def Con from 1.22586e-005 to 1.22601e-005
Heightened Def Con from 0.000104759 to 0.00010476
Heightened Def Con from 0.000279759 to 0.00027976
Heightened Def Con from 0.000289757 to 0.00028976
Heightened Def Con from 0.000354768 to 0.00035477
Heightened Def Con from 0.00045976 to 0.00045976
Heightened Def Con from 0.000464759 to 0.000464762
Heightened Def Con from 0.000569759 to 0.000569762
Heightened Def Con from 0.000664759 to 0.000664762
Heightened Def Con from 0.000674759 to 0.000674762
Heightened Def Con from 0.000754759 to 0.000754762
Heightened Def Con from 0.00119477 to 0.00119477
Heightened Def Con from 0.00123004 to 0.00123004
Heightened Def Con from 0.00140504 to 0.00140504
Heightened Def Con from 0.00140563 to 0.00140563

Date: Thu Nov 20 12:56:29 2025
Total elapsed time: 9.493 seconds.

tnom = 27
temp = 27
method = trap
totiter = 3940528
traniter = 3940516
tranpoints = 1156196
accept = 824811
rejected = 331402
matrix size = 41
fillins = 39
solver = Normal
Matrix Compiler1: 4.41 KB object code size  0.7/0.4/[0.3]
Matrix Compiler2: 3.73 KB object code size  0.3/0.4/[0.3]

